15

N     -2.0180887     0.2594181     0.0000024    
C     -1.8791755    -1.0947307     0.0000018    
C     -0.9147372     1.0674261     0.0000034    
C      0.3741295     0.4446943     0.0000038    
C      0.4048883    -0.9827937     0.0000002    
N     -0.7219911    -1.7658713    -0.0000018    
N      1.6790538     0.9180243     0.0000057    
C      2.4881879    -0.1550347     0.0000008    
N      1.7466669    -1.3405397    -0.0000022    
N     -1.0923452     2.4086635    -0.0000010    
H     -2.8141802    -1.6788629     0.0000000    
H      3.5877100    -0.0866443     0.0000004    
H     -2.0641118     2.8300783    -0.0000048    
H     -0.2569019     3.0588646    -0.0000035    
H      2.1336291    -2.3273243    -0.0000053    
